tests/data/state_estimation/link-after-3w-trafo-with-node-injection-sensor/input.json
{
  "version": "1.0",
  "type": "input",
  "is_batch": false,
  "attributes": {},
  "data": {
    "node": [
      {"id": 30, "u_rated": 400},
      {"id": 90, "u_rated": 10000},
      {"id": 112, "u_rated": 400},
      {"id": 113, "u_rated": 10000}
    ],
    "source": [
      {"id": 207, "node": 90, "status": 1, "u_ref": 1, "u_ref_angle": 0}
    ],
    "three_winding_transformer": [
      {"id": 208, "node_1": 90, "node_2": 112, "node_3": 113, "status_1": 1, "status_2": 1, "status_3": 0, "u1": 10000, "u2": 400, "u3": 10000, "sn_1": 630000, "sn_2": 630000, "sn_3": 630000, "uk_12": 0.04,"uk_13": 0.04, "uk_23": 0.04, "pk_12": 6800.22, "pk_13": 0, "pk_23": 0, "i0": 0.0018730158730158729, "p0": 1180, "winding_1": 1, "winding_2": 1, "winding_3": 1, "clock_12": 0, "clock_13": 0, "tap_side": 1, "tap_pos": 5, "tap_min": 1, "tap_max": 9, "tap_nom": 5, "tap_size": 10, "r_grounding_1": 0, "x_grounding_1": 0, "r_grounding_2": 0, "x_grounding_2": 0, "r_grounding_3": 0, "x_grounding_3": 0}
    ],
    "link": [
      {"id": 229, "from_node": 30, "to_node": 112, "from_status": 1, "to_status": 1}
    ],
    "asym_voltage_sensor": [
      {"id": 329, "measured_object": 30, "u_sigma": 2.3094000000000001, "u_measured": [230.94011, 230.94011, 230.94011]}
    ],
    "asym_power_sensor": [
       {"id": 466, "measured_object": 208, "measured_terminal_type": 6, "p_measured": [0, 0, 0], "q_measured": [0, 0, 0], "p_sigma": [1000, 1000, 1000], "q_sigma": [1000, 1000, 1000]},
       {"id": 467, "measured_object": 112, "measured_terminal_type": 9, "p_measured": [0, 0, 0], "q_measured": [0, 0, 0], "p_sigma": [1000, 1000, 1000], "q_sigma": [1000, 1000, 1000]}
    ]
  }
}